Program Version,EnergyPlus, Version 25.1.0-68a4a7c774, YMD=2026.05.01 00:25,
   ************* Beginning Zone Sizing Calculations
   ** Warning ** Site:GroundTemperature:BuildingSurface: Some values fall outside the range of 15-25C.
   **   ~~~   ** These values may be inappropriate.  Please consult the Input Output Reference for more details.
   ** Warning ** Weather file location will be used rather than entered (IDF) Location object.
   **   ~~~   ** ..Location object=CHICAGO MIDWAY AP_IL_USA DESIGN_CONDITIONS
   **   ~~~   ** ..Weather File Location=Philadelphia International Ap PA USA TMY3 WMO#=724080
   **   ~~~   ** ..due to location differences, Latitude difference=[1.91] degrees, Longitude difference=[12.52] degrees.
   **   ~~~   ** ..Time Zone difference=[1.0] hour(s), Elevation difference=[98.92] percent, [184.00] meters.
   ** Warning ** ManageSizing: For a plant sizing run, there must be at least 1 Sizing:Plant object input. SimulationControl Plant Sizing option ignored.
   ************* Testing Individual Branch Integrity
   ************* All Branches passed integrity testing
   ************* Testing Individual Supply Air Path Integrity
   ************* All Supply Air Paths passed integrity testing
   ************* Testing Individual Return Air Path Integrity
   ************* All Return Air Paths passed integrity testing
   ************* No node connection errors were found.
   ************* Beginning Simulation
   ************* Simulation Error Summary *************
   ************* EnergyPlus Warmup Error Summary. During Warmup: 0 Warning; 0 Severe Errors.
   ************* EnergyPlus Sizing Error Summary. During Sizing: 3 Warning; 0 Severe Errors.
   ************* EnergyPlus Completed Successfully-- 3 Warning; 0 Severe Errors; Elapsed Time=00hr 00min  3.29sec
